Version 4
SHEET 1 880 680
SYMBOL voltage 80 176 R0
SYMATTR InstName V1
TEXT 128 0 Left 2 ;BiCMOS Inverter
