Version 4
SHEET 1 928 680
WIRE 336 -320 336 -368
WIRE 336 -320 320 -320
WIRE 128 -304 0 -304
WIRE 0 -192 0 -304
WIRE -80 -144 -144 -144
WIRE 480 -144 16 -144
WIRE -144 -128 -144 -144
WIRE -144 -128 -256 -128
WIRE 336 -128 336 -320
WIRE 480 -112 480 -144
WIRE 528 -112 480 -112
WIRE 624 -96 544 -96
WIRE -144 -80 -144 -128
WIRE 320 -80 -144 -80
WIRE 480 -80 480 -112
WIRE 480 -80 416 -80
WIRE 528 -80 528 -112
WIRE 544 -80 544 -96
WIRE 544 -80 528 -80
WIRE 896 -80 816 -80
WIRE 544 -64 544 -80
WIRE 624 -64 544 -64
WIRE 176 48 -192 48
WIRE 336 64 336 -128
WIRE 0 96 0 -192
WIRE 176 112 176 48
WIRE 256 112 176 112
WIRE 464 112 352 112
WIRE 528 112 528 -80
WIRE 528 112 464 112
WIRE -192 128 -192 48
WIRE -192 128 -256 128
WIRE -192 144 -192 128
WIRE -16 144 -192 144
WIRE 464 144 464 112
WIRE 464 144 80 144
FLAG 336 -368 a
FLAG -256 -128 b
FLAG -256 128 c
FLAG 480 -112 x
FLAG 896 -80 y
FLAG 720 -144 vdd
FLAG 224 -368 vdd
SYMBOL pmos -80 -192 M90
SYMATTR InstName M1
SYMBOL nmos 80 96 R90
SYMATTR InstName M2
SYMBOL nmos 416 -128 R90
SYMATTR InstName M3
SYMBOL pmos 256 64 M90
SYMATTR InstName M4
SYMBOL my_nor 224 -304 M0
SYMATTR InstName NOR1
SYMBOL my_nor 720 -80 R0
SYMATTR InstName NOR2
TEXT -192 312 Left 2 !.inc C:\\Users\\RJ\\Documents\\LTspiceXVII\\EE_347\\gate_test.txt
TEXT 128 -448 Left 2 ;CMOS 2-to-1 buffered MUX
