Version 4
SHEET 1 880 920
WIRE 256 160 256 112
WIRE 112 176 -32 176
WIRE 208 176 112 176
WIRE 624 240 624 208
WIRE 528 288 464 288
WIRE 256 304 256 256
WIRE 320 304 256 304
WIRE 432 304 320 304
WIRE 464 304 464 288
WIRE 464 304 432 304
WIRE 816 304 720 304
WIRE 464 320 464 304
WIRE 528 320 464 320
WIRE 320 368 320 304
WIRE 320 368 224 368
WIRE 432 368 320 368
WIRE 224 400 224 368
WIRE 432 400 432 368
WIRE 176 416 -32 416
WIRE 576 416 480 416
WIRE 224 544 224 496
WIRE 432 544 432 496
WIRE 176 560 -32 560
WIRE 576 560 480 560
WIRE 224 656 224 640
WIRE 336 656 224 656
WIRE 432 656 432 640
WIRE 432 656 336 656
WIRE 336 688 336 656
WIRE 112 704 112 176
WIRE 288 704 112 704
WIRE 336 816 336 784
FLAG -32 416 A
FLAG -32 560 B
FLAG 576 416 C
FLAG 576 560 D
FLAG 336 816 0
FLAG 432 304 X
FLAG 256 112 Vdd
FLAG -32 176 P
FLAG 624 208 Vdd
FLAG 816 304 Y
SYMBOL pmos 208 256 M180
SYMATTR InstName M1
SYMBOL nmos 176 496 M180
SYMATTR InstName M2
SYMBOL nmos 176 640 M180
SYMATTR InstName M3
SYMBOL nmos 480 496 R180
SYMATTR InstName M4
SYMBOL nmos 480 640 R180
SYMATTR InstName M5
SYMBOL nmos 288 784 M180
SYMATTR InstName M6
SYMBOL my_nor 624 304 R0
SYMATTR InstName NOR
TEXT 128 8 Left 2 ;Domino AOI Gate
TEXT 8 864 Left 2 !.inc C:\\Users\\RJ\\Documents\\LTspiceXVII\\EE_347\\domino_test.txt
TEXT 8 904 Left 2 !.lib DetailedModel.mod
TEXT 408 56 Left 2 !.tran 4m
