Version 4
SHEET 1 880 680
WIRE 320 80 320 -16
WIRE 320 80 288 80
WIRE 96 96 -80 96
WIRE 320 112 320 80
WIRE 320 112 288 112
WIRE -80 176 -80 96
WIRE 400 208 272 208
WIRE -96 224 -160 224
WIRE 240 224 0 224
WIRE 272 224 272 208
WIRE 272 224 240 224
WIRE 656 224 592 224
WIRE 272 240 272 224
WIRE 400 240 272 240
WIRE 320 368 320 112
WIRE 320 368 64 368
WIRE 64 384 64 368
WIRE 48 432 -160 432
WIRE 240 432 240 224
WIRE 240 432 144 432
FLAG 320 -16 A
FLAG -160 224 B
FLAG -160 432 C
FLAG 192 32 Vdd
FLAG 496 160 Vdd
FLAG 656 224 Y
FLAG 240 224 X
SYMBOL my_nor 192 96 M0
SYMATTR InstName nor1
SYMBOL my_nor 496 224 R0
SYMATTR InstName nor2
SYMBOL nmos 0 176 R90
SYMATTR InstName M1
SYMBOL nmos 144 384 R90
SYMATTR InstName M2
TEXT -160 552 Left 2 !.inc C:\\Users\\RJ\\Documents\\LTspiceXVII\\EE_347\\gate_test.txt
TEXT 112 -88 Left 2 ;NMOS 2-to-1 buffered MUX
