Version 4
SHEET 1 880 748
WIRE 208 144 208 112
WIRE 208 144 192 144
WIRE 64 160 48 160
WIRE 208 160 208 144
WIRE 208 160 192 160
WIRE 48 224 48 160
WIRE 32 272 -16 272
WIRE 256 272 128 272
WIRE 288 272 256 272
WIRE 320 272 288 272
WIRE 336 272 320 272
WIRE 320 288 320 272
WIRE 336 288 320 288
WIRE 208 320 208 160
WIRE 80 336 80 272
WIRE 192 368 -16 368
WIRE 288 368 288 272
WIRE 240 432 240 368
FLAG 208 112 CLK
FLAG -16 272 B
FLAG -16 368 C
FLAG 80 336 0
FLAG 240 432 0
FLAG 128 112 Vdd
FLAG 400 240 Vdd
FLAG 464 288 Y
FLAG 256 272 X
SYMBOL nor_gate 128 160 M0
SYMATTR InstName invBuf1
SYMBOL nmos4 128 224 R90
SYMATTR InstName M1
SYMATTR Value NMOD1
SYMBOL nmos4 288 320 R90
SYMATTR InstName M2
SYMATTR Value NMOD1
SYMBOL nor_gate 400 288 R0
SYMATTR InstName invBuf2
TEXT 64 8 Left 2 ;NMOS 2-to-1 MUX Plus Buffer
TEXT -72 480 Left 2 !.MODEL NMOD1 NMOS (L=3U W=6U KP=69U GAMMA=0.37\n+LAMBDA=0.06 RD=1 RS=1 VTO=1.0 TOX=0.04U\n+CBD=2F CBS=2F CJ=200U CGBO=200P CGSO=40P CGDO=40P)
TEXT -64 648 Left 2 !V_CLK CLK 0 PULSE(0 8 0.5m 1n 1n 0.5m 1m)\nV_B B 0 PULSE(0 8 0 1n 1n 1m 2m)\nV_C C 0 PULSE(0 8 1m 1n 1n 2m 4m)\nV_DD Vdd 0 8
TEXT -64 616 Left 2 !.tran 2m
