.tran 8m
.lib DetailedModel.mod
V_A A 0 PULSE(0 75 75 10n 10n 8m 8m 1)
V_B B 0 PULSE(0 40 40 10n 10n 2m 4m 2)
V_D Vdd 0 5
