Version 4
SHEET 1 880 680
WIRE 112 -80 64 -80
WIRE 336 -48 304 -48
WIRE 256 -16 224 -16
WIRE 464 0 416 0
WIRE 256 16 224 16
WIRE 256 32 224 32
WIRE 464 32 416 32
WIRE 96 80 80 80
WIRE 336 128 304 128
WIRE 96 144 80 144
WIRE 256 160 224 160
WIRE 464 176 416 176
WIRE 256 192 224 192
WIRE 256 208 224 208
WIRE 464 208 416 208
WIRE 752 272 688 272
WIRE 336 320 304 320
WIRE 752 320 688 320
WIRE 256 352 224 352
WIRE 464 368 416 368
WIRE 256 384 224 384
WIRE 256 400 224 400
WIRE 464 400 416 400
WIRE 336 496 304 496
WIRE 256 528 224 528
WIRE 464 544 416 544
WIRE 256 560 224 560
WIRE 256 576 224 576
WIRE 464 576 416 576
FLAG 80 80 A[3:0]
IOPIN 80 80 In
FLAG 80 144 B[4:0]
IOPIN 80 144 In
FLAG 752 272 Sum
IOPIN 752 272 Out
FLAG 752 320 Carry
IOPIN 752 320 Out
FLAG 96 80 A
FLAG 96 144 B
FLAG 224 -16 A[0]
FLAG 224 16 B[0]
FLAG 224 32 0
FLAG 224 160 A[1]
FLAG 224 192 B[1]
FLAG 224 208 carry0
FLAG 464 0 Sum[0]
FLAG 464 32 carry0
FLAG 464 176 Sum[1]
FLAG 464 208 carry1
FLAG 224 352 A[2]
FLAG 224 384 B[2]
FLAG 224 400 carry1
FLAG 464 368 Sum[2]
FLAG 464 400 carry2
FLAG 64 -80 Vdd
IOPIN 64 -80 In
FLAG 224 528 A[3]
FLAG 224 560 B[3]
FLAG 224 576 carry2
FLAG 464 544 Sum[3]
FLAG 464 576 carry3
FLAG 688 272 Sum[4:0]
FLAG 688 320 carry3
SYMBOL fa 336 16 R0
WINDOW 0 0 0 Left 0
SYMATTR InstName fa0
SYMBOL fa 336 192 R0
WINDOW 0 0 0 Left 0
SYMATTR InstName fa1
SYMBOL fa 336 384 R0
WINDOW 0 0 0 Left 0
SYMATTR InstName fa2
SYMBOL fa 336 560 R0
WINDOW 0 0 0 Left 0
SYMATTR InstName fa3
TEXT 128 -128 Left 2 ;4-bit Adder Circuit
