Version 4
SHEET 1 880 680
WIRE 112 -80 64 -80
WIRE 112 -48 112 -80
WIRE 160 -48 112 -48
WIRE 336 -48 160 -48
WIRE 256 -16 224 -16
WIRE 464 0 416 0
WIRE 256 16 224 16
WIRE 64 32 48 32
WIRE 256 32 224 32
WIRE 464 32 416 32
WIRE 64 96 48 96
WIRE 160 128 160 -48
WIRE 160 128 128 128
WIRE 336 128 160 128
WIRE 256 160 224 160
WIRE 464 176 416 176
WIRE 256 192 224 192
WIRE 256 208 224 208
WIRE 464 208 416 208
WIRE 752 272 688 272
WIRE 128 320 128 128
WIRE 336 320 128 320
WIRE 256 352 224 352
WIRE 464 368 416 368
WIRE 256 384 224 384
WIRE 256 400 224 400
WIRE 464 400 416 400
WIRE 128 480 128 320
WIRE 304 480 128 480
WIRE 304 496 304 480
WIRE 336 496 304 496
WIRE 256 528 224 528
WIRE 464 544 416 544
WIRE 256 560 224 560
WIRE 256 576 224 576
WIRE 464 576 416 576
FLAG 48 32 A[3:0]
IOPIN 48 32 In
FLAG 48 96 B[3:0]
IOPIN 48 96 In
FLAG 752 272 Sum
IOPIN 752 272 Out
FLAG 64 32 A
FLAG 64 96 B
FLAG 224 -16 A[0]
FLAG 224 16 B[0]
FLAG 224 32 0
FLAG 224 160 A[1]
FLAG 224 192 B[1]
FLAG 224 208 carry0
FLAG 464 0 Sum[0]
FLAG 464 32 carry0
FLAG 464 176 Sum[1]
FLAG 464 208 carry1
FLAG 224 352 A[2]
FLAG 224 384 B[2]
FLAG 224 400 carry1
FLAG 464 368 Sum[2]
FLAG 464 400 carry2
FLAG 64 -80 Vdd
IOPIN 64 -80 In
FLAG 224 528 A[3]
FLAG 224 560 B[3]
FLAG 224 576 carry2
FLAG 464 544 Sum[3]
FLAG 464 576 Sum[4]
FLAG 688 272 Sum[4:0]
FLAG 112 -80 Vdd
SYMBOL fa 336 16 R0
WINDOW 0 0 0 Left 0
SYMATTR InstName fa0
SYMBOL fa 336 192 R0
WINDOW 0 0 0 Left 0
SYMATTR InstName fa1
SYMBOL fa 336 384 R0
WINDOW 0 0 0 Left 0
SYMATTR InstName fa2
SYMBOL fa 336 560 R0
WINDOW 0 0 0 Left 0
SYMATTR InstName fa3
TEXT 128 -128 Left 2 ;4-bit Adder Circuit
TEXT 128 -104 Left 2 !.inc C:\\Users\\RJ\\Documents\\LTspiceXVII\\4b_adder_test.txt
