.tran 8m
.lib DetailedModel.mod
V_A A 0 PULSE(0 5 0 10n 10n 4m 8m 1)
V_B B 0 PULSE(0 5 0 10n 10n 2m 4m 2)
V_C Cin 0 PULSE(0 5 0 10n 10n 1m 2m 4)
V_D Vdd 0 5
