Version 4
SHEET 1 968 680
WIRE 128 -16 80 -16
WIRE 176 -16 128 -16
WIRE 896 -16 832 -16
WIRE 960 -16 896 -16
WIRE 400 0 352 0
WIRE 608 16 560 16
WIRE 400 32 352 32
WIRE 128 48 80 48
WIRE 176 48 128 48
WIRE 400 48 352 48
WIRE 608 48 560 48
WIRE 352 64 352 48
WIRE 400 160 352 160
WIRE 608 176 560 176
WIRE 400 192 352 192
WIRE 400 208 352 208
WIRE 608 208 560 208
WIRE 400 320 352 320
WIRE 608 336 560 336
WIRE 400 352 352 352
WIRE 400 368 352 368
WIRE 608 368 560 368
WIRE 400 480 352 480
WIRE 608 496 560 496
WIRE 400 512 352 512
WIRE 400 528 352 528
WIRE 608 528 560 528
FLAG 128 -16 A[3:0]
FLAG 128 48 B[3:0]
FLAG 896 -16 SUM[4:0]
FLAG 352 64 0
FLAG 352 0 A[0]
FLAG 352 32 B[0]
FLAG 608 16 SUM[0]
FLAG 608 48 C0
FLAG 352 208 C0
FLAG 352 192 B[1]
FLAG 352 160 A[1]
FLAG 608 176 SUM[1]
FLAG 608 208 C1
FLAG 352 368 C1
FLAG 352 352 B[2]
FLAG 352 320 A[2]
FLAG 608 336 SUM[2]
FLAG 608 368 C2
FLAG 352 528 C2
FLAG 352 512 B[3]
FLAG 352 480 A[3]
FLAG 608 496 SUM[3]
FLAG 608 528 SUM[4]
FLAG 480 -32 Vdd
FLAG 480 128 Vdd
FLAG 480 288 Vdd
FLAG 480 448 Vdd
SYMBOL fa 480 32 R0
WINDOW 0 0 0 Left 0
SYMATTR InstName fa1
SYMBOL fa 480 192 R0
WINDOW 0 0 0 Left 0
SYMATTR InstName fa2
SYMBOL fa 480 352 R0
WINDOW 0 0 0 Left 0
SYMATTR InstName fa3
SYMBOL fa 480 512 R0
WINDOW 0 0 0 Left 0
SYMATTR InstName fa4
TEXT 16 112 Left 2 !.lib DetailedModel.mod
TEXT 16 136 Left 2 !.inc adder_test.txt
TEXT 16 168 Left 2 !.tran 8m
TEXT 400 -136 Left 2 ;Adder
