Version 4
SHEET 1 880 680
WIRE 96 32 80 32
WIRE 160 32 96 32
WIRE 96 80 80 80
WIRE 160 80 96 80
FLAG 96 32 A[3:0]
FLAG 96 80 B[3:0]
TEXT 16 120 Left 2 !.tran 256m
