Version 4
SHEET 1 880 680
WIRE 160 -448 -256 -448
WIRE -256 -384 -256 -448
WIRE 112 -368 -144 -368
WIRE 160 -320 160 -352
WIRE 288 -320 160 -320
WIRE 160 -288 160 -320
WIRE -144 -272 -144 -368
WIRE 112 -208 -16 -208
WIRE -16 -176 -16 -208
WIRE -256 -32 -256 -304
WIRE -144 -32 -144 -192
WIRE -144 -32 -256 -32
WIRE -16 -32 -16 -96
WIRE -16 -32 -144 -32
WIRE 160 -32 160 -192
WIRE 160 -32 -16 -32
WIRE -16 -16 -16 -32
FLAG -16 -16 0
FLAG 288 -320 Vout
SYMBOL voltage -16 -192 R0
SYMATTR InstName Vin
SYMATTR Value 10
SYMBOL voltage -144 -288 R0
SYMATTR InstName Vgg
SYMATTR Value 2.8
SYMBOL nmos 112 -288 R0
SYMATTR InstName M1
SYMBOL pmos 112 -448 R0
SYMATTR InstName M2
SYMBOL voltage -256 -400 R0
SYMATTR InstName Vdd
SYMATTR Value 5
TEXT -256 32 Left 2 !.MODEL NMOD1 NMOS (L=3U W=6U KP=69U GAMMA=0.37\n+LAMBDA=0.06 RD=1 RS=1 VTO=1.0 TOX=0.04U\n+CBD=2F CBS=2F CJ=200U CGBO=200P CGSO=40P CGDO=40P)
TEXT -248 216 Left 2 !.dc Vin 0 10 0.05
TEXT -256 128 Left 2 !.MODEL PMOD1 PMOS (L=3U W=6U KP=34.5U GAMMA=-0.37\n+LAMBDA=0.06 RD=1 RS=1 VTO=-1.0 TOX=0.04U\n+CBD=2F CBS=2F CJ=200U CGBO=200P CGSO=40P CGDO=40P)
