Version 4
SHEET 1 880 680
WIRE 128 -32 80 -32
WIRE 176 -32 128 -32
WIRE 176 16 176 -32
WIRE 176 32 176 16
WIRE 80 48 16 48
WIRE 112 48 80 48
WIRE 304 64 256 64
WIRE 64 80 32 80
WIRE 112 80 64 80
WIRE 112 96 48 96
WIRE 32 112 32 80
WIRE 32 112 16 112
WIRE 48 176 48 96
WIRE 48 176 16 176
WIRE 208 176 208 160
WIRE 208 176 160 176
WIRE 80 208 80 48
WIRE 112 208 80 208
WIRE 304 224 240 224
WIRE 64 240 64 80
WIRE 112 240 64 240
WIRE 48 256 48 176
WIRE 112 256 48 256
FLAG 16 48 A
IOPIN 16 48 In
FLAG 16 112 B
IOPIN 16 112 In
FLAG 16 176 Cin
IOPIN 16 176 In
FLAG 80 -32 Vdd
IOPIN 80 -32 In
FLAG 128 -32 Vdd
FLAG 208 160 Vdd
FLAG 304 64 Sum
IOPIN 304 64 Out
FLAG 304 224 Carry
IOPIN 304 224 Out
SYMBOL fa_sum 160 64 R0
SYMATTR InstName fa_sum
SYMBOL fa_carry 160 224 R0
SYMATTR InstName fa_carry
TEXT 160 -80 Left 2 ;Full Adder Circuit
