Version 4
SHEET 1 880 680
TEXT 136 56 Left 2 ;FA carry circuit
