Version 4
SHEET 1 880 680
WIRE 304 -208 -80 -208
WIRE -80 -160 -80 -208
WIRE 304 -160 304 -208
WIRE 304 -160 288 -160
WIRE 304 -144 304 -160
WIRE 224 -112 128 -112
WIRE 384 -96 368 -96
WIRE 512 -96 384 -96
WIRE 16 -48 -48 -48
WIRE 128 -48 128 -112
WIRE 128 -48 16 -48
WIRE 224 -16 224 -80
WIRE 224 -16 64 -16
WIRE -48 0 -48 -48
WIRE 64 48 64 -16
FLAG -48 80 0
FLAG 64 128 0
FLAG -80 -80 0
FLAG 16 -48 A
FLAG 64 -16 B
FLAG 512 -96 Vout
SYMBOL voltage -48 -16 R0
WINDOW 123 0 0 Left 0
WINDOW 39 0 0 Left 0
SYMATTR InstName V1
SYMATTR Value PULSE(0 5 0 10ps 10ps 1m 2m 4)
SYMBOL voltage 64 32 R0
WINDOW 123 0 0 Left 0
WINDOW 39 0 0 Left 0
SYMATTR InstName V2
SYMATTR Value PULSE(0 5 0 10ps 10ps 2m 4m 2)
SYMBOL voltage -80 -176 R0
WINDOW 123 0 0 Left 0
WINDOW 39 0 0 Left 0
SYMATTR InstName V3
SYMATTR Value 5
SYMBOL my_xnor 304 -96 R0
SYMATTR InstName X1
TEXT -112 152 Left 2 !.tran 4m
TEXT -96 248 Left 2 !.lib DetailedModel.mod
