Version 4
SHEET 1 880 680
WIRE 256 48 224 48
WIRE 256 96 256 48
WIRE 176 128 128 128
WIRE 192 128 176 128
WIRE 384 144 336 144
WIRE 160 160 128 160
WIRE 192 160 160 160
WIRE 288 224 288 208
WIRE 288 224 240 224
WIRE 176 256 176 128
WIRE 192 256 176 256
WIRE 160 272 160 160
WIRE 192 272 160 272
WIRE 384 272 304 272
FLAG 128 128 A
IOPIN 128 128 In
FLAG 128 160 B
IOPIN 128 160 In
FLAG 224 48 Vdd
IOPIN 224 48 In
FLAG 384 144 Sum
IOPIN 384 144 Out
FLAG 384 272 Carry
IOPIN 384 272 Out
FLAG 256 48 Vdd
FLAG 288 208 Vdd
SYMBOL ha_sum 256 144 R0
SYMATTR InstName ha_sum
SYMBOL ha_carry 240 272 R0
SYMATTR InstName ha_carry
TEXT 160 16 Left 2 ;Half Adder Circuit
