Version 4
SHEET 1 880 680
WIRE 192 -32 144 -32
WIRE 192 -16 192 -32
WIRE 112 32 48 32
WIRE 368 48 272 48
WIRE 112 64 48 64
FLAG 48 32 A
IOPIN 48 32 In
FLAG 48 64 B
IOPIN 48 64 In
FLAG 144 -32 Vdd
IOPIN 144 -32 In
FLAG 368 48 Carry
IOPIN 368 48 Out
SYMBOL my_and 192 48 R0
WINDOW 0 0 0 Left 0
SYMATTR InstName AND1
TEXT 120 -96 Left 2 ;HA carry circuit
