Version 4
SHEET 1 880 680
WIRE 208 0 128 0
WIRE 208 32 208 0
WIRE 128 96 48 96
WIRE 384 112 304 112
WIRE 128 144 48 144
WIRE 240 352 192 352
WIRE 240 368 240 352
WIRE 160 416 96 416
WIRE 416 432 320 432
WIRE 160 448 96 448
FLAG 48 96 A
IOPIN 48 96 In
FLAG 48 144 B
IOPIN 48 144 In
FLAG 128 0 Vdd
IOPIN 128 0 In
FLAG 384 112 Sum
IOPIN 384 112 Out
FLAG 96 416 A
IOPIN 96 416 In
FLAG 96 448 B
IOPIN 96 448 In
FLAG 192 352 Vdd
IOPIN 192 352 In
FLAG 416 432 Carry
IOPIN 416 432 Out
SYMBOL my_xor 208 112 R0
SYMATTR InstName XOR
SYMBOL my_and 240 432 R0
WINDOW 0 0 0 Left 0
SYMATTR InstName AND
TEXT -8 -56 Left 2 !.inc C:\\Users\\RJ\\Documents\\LTspiceXVII\\halfadder_sum_test.txt
TEXT 0 -96 Left 2 ;HA summing circuit
TEXT 168 288 Left 2 ;HA carry circuit
