Version 4
SHEET 1 952 680
WIRE 160 -48 96 -48
WIRE 192 -48 160 -48
WIRE 336 -48 304 -48
WIRE 688 -48 656 -48
WIRE 496 -32 464 -32
WIRE 848 -32 816 -32
WIRE 336 -16 304 -16
WIRE 688 -16 656 -16
WIRE 160 16 96 16
WIRE 192 16 160 16
WIRE 352 16 336 16
WIRE 704 16 688 16
WIRE 160 80 96 80
WIRE 192 80 160 80
WIRE 336 80 304 80
WIRE 496 96 464 96
WIRE 848 96 816 96
WIRE 336 112 304 112
WIRE 688 112 656 112
WIRE 160 144 96 144
WIRE 192 144 160 144
WIRE 352 144 336 144
WIRE 704 144 688 144
WIRE 0 192 -16 192
WIRE 64 192 0 192
WIRE 336 224 304 224
WIRE 496 240 464 240
WIRE 848 240 816 240
WIRE 336 256 304 256
WIRE 688 256 656 256
WIRE 352 288 336 288
WIRE 704 288 688 288
WIRE 336 352 304 352
WIRE 496 368 464 368
WIRE 848 368 816 368
WIRE 336 384 304 384
WIRE 688 384 656 384
WIRE 352 416 336 416
WIRE 704 416 688 416
FLAG 96 16 S[4:0]
IOPIN 96 16 In
FLAG 96 80 P[7:0]
IOPIN 96 80 In
FLAG 96 144 SEL
IOPIN 96 144 In
FLAG 96 -48 Vdd
IOPIN 96 -48 In
FLAG 64 192 MUX[7:0]
IOPIN 64 192 Out
FLAG 160 -48 Vdd
FLAG 160 16 S[3:0]
FLAG 160 80 P[7:0]
FLAG 160 144 SEL
FLAG 0 192 MUX[7:0]
FLAG 400 -80 Vdd
FLAG 752 -80 Vdd
FLAG 400 48 Vdd
FLAG 752 48 Vdd
FLAG 752 192 Vdd
FLAG 400 192 Vdd
FLAG 752 320 Vdd
FLAG 400 320 Vdd
FLAG 688 352 0
FLAG 688 224 0
FLAG 688 80 0
FLAG 304 -48 S[0]
FLAG 304 -16 P[0]
FLAG 304 80 S[1]
FLAG 304 224 S[2]
FLAG 304 112 P[1]
FLAG 304 256 P[2]
FLAG 304 352 S[3]
FLAG 304 384 P[3]
FLAG 656 -48 S[4]
FLAG 656 -16 P[4]
FLAG 656 112 P[5]
FLAG 656 256 P[6]
FLAG 656 384 P[7]
FLAG 336 16 SEL
FLAG 336 144 SEL
FLAG 336 288 SEL
FLAG 336 416 SEL
FLAG 688 416 SEL
FLAG 496 -32 MUX[0]
FLAG 496 96 MUX[1]
FLAG 496 240 MUX[2]
FLAG 496 368 MUX[3]
FLAG 848 -32 MUX[4]
FLAG 848 96 MUX[5]
FLAG 848 240 MUX[6]
FLAG 848 368 MUX[7]
SYMBOL mux2t1 400 -32 R0
SYMATTR InstName MUX0
SYMBOL mux2t1 400 96 R0
SYMATTR InstName MUX1
SYMBOL mux2t1 400 240 R0
SYMATTR InstName MUX2
SYMBOL mux2t1 400 368 R0
SYMATTR InstName MUX3
SYMBOL mux2t1 752 -32 R0
SYMATTR InstName MUX4
SYMBOL mux2t1 752 96 R0
SYMATTR InstName MUX5
SYMBOL mux2t1 752 240 R0
SYMATTR InstName MUX6
SYMBOL mux2t1 752 368 R0
SYMATTR InstName MUX7
TEXT 304 -176 Left 2 ;Sum-Product 2t1 Mux, 8-bit output
