Version 4
SHEET 1 888 680
WIRE 608 -144 224 -144
WIRE 608 -112 608 -144
WIRE 224 -96 224 -144
WIRE 528 -48 432 -48
WIRE 816 -32 704 -32
WIRE 320 16 256 16
WIRE 432 16 432 -48
WIRE 432 16 320 16
WIRE 528 48 528 0
WIRE 528 48 368 48
WIRE 256 64 256 16
WIRE 368 112 368 48
FLAG 256 144 0
FLAG 368 192 0
FLAG 224 -16 0
FLAG 320 16 A
FLAG 368 48 B
FLAG 816 -32 Vout
SYMBOL voltage 256 48 R0
WINDOW 123 0 0 Left 0
WINDOW 39 0 0 Left 0
SYMATTR InstName V1
SYMATTR Value PULSE(0 5 0 10ps 10ps 1m 2m 4)
SYMBOL voltage 368 96 R0
WINDOW 123 0 0 Left 0
WINDOW 39 0 0 Left 0
SYMATTR InstName V2
SYMATTR Value PULSE(0 5 0 10ps 10ps 2m 4m 2)
SYMBOL voltage 224 -112 R0
WINDOW 123 0 0 Left 0
WINDOW 39 0 0 Left 0
SYMATTR InstName V3
SYMATTR Value 5
SYMBOL my_xor 608 -32 R0
SYMATTR InstName X1
TEXT 192 216 Left 2 !.tran 4m
TEXT 208 312 Left 2 !.lib DetailedModel.mod
