Version 4
SHEET 1 880 680
WIRE 336 0 144 0
WIRE 336 64 336 0
WIRE 336 64 176 64
WIRE 496 64 336 64
WIRE 496 80 496 64
WIRE 96 128 48 128
WIRE 400 144 272 144
WIRE 720 144 608 144
WIRE 96 176 48 176
FLAG 48 128 A
IOPIN 48 128 In
FLAG 48 176 B
IOPIN 48 176 In
FLAG 144 0 Vdd
IOPIN 144 0 In
FLAG 720 144 Vout
IOPIN 720 144 Out
SYMBOL my_xor 176 144 R0
SYMATTR InstName X1
SYMBOL my_inverter 496 144 R0
SYMATTR InstName X2
