.lib DetailedModel.mod
.ic V(Wrap1)=0
Vctrl Vctrl 0 .870
Vdd Vdd 0 .870
.tran 2u