Version 4
SHEET 1 880 680
WIRE 320 32 240 32
WIRE 128 48 80 48
WIRE 320 64 240 64
WIRE 128 80 64 80
WIRE 256 96 240 96
WIRE 352 96 320 96
FLAG 64 80 vin
FLAG 320 32 vin
FLAG 320 64 vdd
FLAG 352 96 0
FLAG 80 48 vout
SYMBOL AutoGenerated\\CD74HC00 176 64 R0
SYMATTR InstName U1
SYMBOL cap 320 80 R90
WINDOW 0 0 32 VBottom 2
WINDOW 3 32 32 VTop 2
SYMATTR InstName C1
SYMATTR Value 20p
TEXT 40 192 Left 2 !Vin vin 0 PULSE(0 3 0 1n 1n 0.5u 1u)
TEXT 48 312 Left 2 !.tran 1u
TEXT 40 256 Left 2 !VCV vdd 0 5
TEXT 96 -32 Left 2 ;CMOS NAND 74HC00
